test/data/pti/case3_2wtf_vmon0.raw
0,   100.00, 33, 0, 1, 50.00     / PSS(R)E 33 RAW created by rawd33  MON, SEP 18 2023  13:45
Example
SOME ITEMS IS NOT SUPPORTED, PLEASE CHECK THE DOCS.
     2,'            ', 132.0000,1,   6,   6,   1,0.82852,  -0.7009,1.10000,0.9000,1.1000,0.90000
     3,'            ', 132.0000,1,   6,   5,   1,0.93835,  -2.1349,1.10000,0.9000,1.1000,0.90000
     4,'            ',  11.0000,3,   6,   6,   1,1.05000,   0.0000,1.1000,0.9000,1.10000,0.90000
0 / END OF BUS DATA, BEGIN LOAD DATA
     2,'1 ',1,   6,   6,    15.000,    50.000,     0.000,     0.000,     0.000,     0.000,   1,1,0
0 / END OF LOAD DATA, BEGIN FIXED SHUNT DATA
0 / END OF FIXED SHUNT DATA, BEGIN GENERATOR DATA
     4,'1 ',    18.352,    58.958,   400.000,     0.000,1.05000,     0,   100.000, 0.00000E+0, 2.00000E-1, 0.00000E+0, 0.00000E+0,1.00000,1,  100.0,   300.000,     0.000,  60,1.0000
0 / END OF GENERATOR DATA, BEGIN BRANCH DATA
     2,     3,'1 ', 9.00000E-2, 1.60000E-1,   0.05000,   90.30,   99.30,    0.00,  0.00000,  0.00000,  0.00000,  0.00000,1,1,  60.00,   1,1.0000
0 / END OF BRANCH DATA, BEGIN TRANSFORMER DATA
     3,     4,     0,'1 ',3,2,1, 0.00000E+0, 0.00000E+0,2,'            ',1,   1,1.0000,   0,1.0000,   0,1.0000,   0,1.0000,'            '
 0.00000E+0, 1.20000E-1,    100.00
1.00000,   0.000,   0.000,   100.00,    66.00,     0.00, 1,      0, 1.15003, 0.94999, 1.10000, 0.90000,  17, 0, 0.00000, 0.00000,  0.000
1.00000,   0.000
0 / END OF TRANSFORMER DATA, BEGIN AREA DATA
0 / END OF AREA DATA, BEGIN TWO-TERMINAL DC DATA
0 / END OF TWO-TERMINAL DC DATA, BEGIN VSC DC LINE DATA
0 / END OF VSC DC LINE DATA, BEGIN IMPEDANCE CORRECTION DATA
0 / END OF IMPEDANCE CORRECTION DATA, BEGIN MULTI-TERMINAL DC DATA
0 / END OF MULTI-TERMINAL DC DATA, BEGIN MULTI-SECTION LINE DATA
0 / END OF MULTI-SECTION LINE DATA, BEGIN ZONE DATA
0 / END OF ZONE DATA, BEGIN INTER-AREA TRANSFER DATA
0 / END OF INTER-AREA TRANSFER DATA, BEGIN OWNER DATA
0 / END OF OWNER DATA, BEGIN FACTS DEVICE DATA
0 / END OF FACTS DEVICE DATA, BEGIN SWITCHED SHUNT DATA
0 / END OF SWITCHED SHUNT DATA, BEGIN GNE DATA
0 / END OF GNE DATA, BEGIN INDUCTION MACHINE DATA
0 / END OF INDUCTION MACHINE DATA
Q
